test/test_files/input_tests/powerflowWECC1.raw
0,   100.00,  32, 0, 1, 60.00     / PSS(R)E 32 RAW
                               100.0

     2,'CORONADO    ', 500.0000,1,   1,   1,   1,0.98251, -37.4503
     3,'CHOLLA      ', 345.0000,1,   1,   1,   1,0.98207, -28.7694
     4,'CORONADO    ',  20.0000,2,   1,   1,   1,1.04000, -31.0310
     5,'CRAIG       ', 345.0000,1,   1,   1,   1,0.97079,   6.3498
     6,'CRAIG       ',  22.0000,2,   1,   1,   1,0.95000,  13.7365
     7,'FOURCORN    ', 500.0000,1,   1,   1,   1,1.06975, -20.2397
     8,'FOURCORN    ', 345.0000,1,   1,   1,   1,1.01041, -17.1876
     9,'FCNGN4CC    ',  22.0000,2,   1,   1,   1,1.00000, -10.2788
    10,'FOURCORN    ', 230.0000,1,   1,   1,   1,1.00850, -17.7389
    11,'HAYDEN      ',  20.0000,2,   1,   1,   1,1.00000,  23.8855
    12,'NAVAJO      ', 500.0000,1,   2,   1,   1,1.07035, -35.3857
    13,'NAVAJO 2    ',  26.0000,2,   2,   1,   1,1.00000, -29.2520
    14,'MOENKOPI    ', 500.0000,1,   2,   1,   1,1.06574, -36.3433
    15,'PALOVRD2    ',  24.0000,2,   2,   1,   1,0.96000, -33.9302
    16,'PALOVRDE    ', 500.0000,1,   2,   1,   1,1.04623, -41.8978
    17,'SAN JUAN    ', 345.0000,1,   1,   1,   1,1.03559, -16.4421
    18,'SJUAN G4    ',  22.0000,2,   1,   1,   1,1.00000, -13.4548
    19,'WESTWING    ', 500.0000,1,   2,   1,   1,1.05354, -41.7968
    20,'NAVAJO1     ', 500.0000,1,   2,   1,   1,1.06835, -34.2579
    21,'NAVAJO2     ', 500.0000,1,   2,   1,   1,1.05908, -37.4831
    22,'NAVAJO3     ', 500.0000,1,   2,   1,   1,1.04580, -33.3331
    23,'NAVAJO4     ', 500.0000,1,   2,   1,   1,1.02401, -43.9102
    24,'MOENKOP1    ', 500.0000,1,   2,   1,   1,1.05457, -34.6603
    25,'MOENKOP2    ', 500.0000,1,   2,   1,   1,1.03931, -43.5131
    26,'MOENKOP3    ', 500.0000,1,   2,   1,   1,1.05075, -27.8307
    27,'MOENKOP4    ', 500.0000,1,   2,   1,   1,1.03321, -52.5411
    28,'FOURCOR1    ', 500.0000,1,   1,   1,   1,1.06731, -18.2239
    29,'FOURCOR2    ', 500.0000,1,   1,   1,   1,1.06601, -39.3355
    30,'CANAD G1    ',  20.0000,2,   1,   1,   1,1.00000,   4.9106
    31,'CANADA      ', 500.0000,1,   1,   1,   1,1.03637,   1.1202
    32,'CANALB      ', 500.0000,1,   1,   1,   1,1.08157,  28.7964
    33,'CA230TO     ', 230.0000,1,   1,   1,   1,0.98075,  33.2841
    34,'CA230       ', 230.0000,1,   1,   1,   1,1.00133,  42.1628
    35,'CMAIN GM    ',  20.0000,2,   1,   1,   1,1.02000,  47.0785
    36,'BRIDGER2    ',  22.0000,2,   1,   1,   1,1.00900,  -8.6991
    37,'ADELANTO    ', 500.0000,1,   2,   1,   1,1.04407, -51.8333
    38,'ADELAN&1    ', 500.0000,1,   2,   1,   1,1.06305, -55.3977
    39,'CASTAIC     ', 230.0000,1,   2,   1,   1,1.01894, -56.2418
    40,'CASTAI4G    ',  18.0000,2,   2,   1,   1,1.02000, -54.9836
    41,'GLENDAL     ', 230.0000,1,   2,   1,   1,1.00704, -60.3400
    42,'HAYNES      ', 230.0000,1,   2,   1,   1,1.01991, -60.1609
    43,'HAYNES3G    ',  18.0000,2,   2,   1,   1,1.00000, -56.8355
    44,'INTERMT     ', 345.0000,1,   1,   1,   1,1.04508, -24.6422
    45,'INTERM1G    ',  26.0000,2,   1,   1,   1,1.05000, -19.9902
    46,'OLIVE       ', 230.0000,1,   2,   1,   1,1.01739, -56.5894
    47,'OWENS G     ',  11.5000,2,   2,   1,   1,1.02000, -56.5448
    48,'RINALDI     ', 230.0000,1,   2,   1,   1,1.01605, -56.8124
    49,'RINALDI     ', 500.0000,1,   2,   1,   1,1.05532, -54.8170
    50,'RIVER       ', 230.0000,1,   2,   1,   1,1.00882, -61.3767
    51,'STA B       ', 138.0000,1,   2,   1,   1,1.01781, -61.5736
    52,'STA B1      ', 287.0000,1,   2,   1,   1,1.02174, -60.3874
    53,'STA B2      ', 287.0000,1,   2,   1,   1,1.02174, -60.3874
    54,'STA BLD     ', 230.0000,1,   2,   1,   1,1.01244, -61.7271
    55,'STA E       ', 230.0000,1,   2,   1,   1,1.00813, -59.3963
    56,'STA E       ', 500.0000,1,   2,   1,   1,1.02634, -57.1020
    57,'STA F       ', 230.0000,1,   2,   1,   1,1.01005, -61.4337
    58,'STA G       ', 230.0000,1,   2,   1,   1,1.00821, -60.6306
    59,'STA J       ', 230.0000,1,   2,   1,   1,1.01324, -57.9563
    60,'SYLMARLA    ', 230.0000,1,   2,   1,   1,1.01920, -55.9142
    61,'SYLMAR S    ', 230.0000,1,   2,   1,   1,1.00202, -56.9670
    62,'VALLEY      ', 230.0000,1,   2,   1,   1,1.01155, -58.1596
    63,'VICTORVL    ', 287.0000,1,   2,   1,   1,1.03656, -54.1443
    64,'VICTORVL    ', 500.0000,1,   2,   1,   1,1.04342, -52.2799
    65,'MONTA G1    ',  20.0000,2,   1,   1,   1,1.00000,  31.4843
    66,'MONTANA     ', 500.0000,1,   1,   1,   1,1.05925,  23.1714
    67,'BIG EDDY    ', 115.0000,1,   1,   1,   1,1.04680, -24.0523
    68,'BIG EDDY    ', 230.0000,1,   1,   1,   1,1.04579, -21.3582
    69,'BIG EDDY    ', 500.0000,1,   1,   1,   1,1.06883, -19.8339
    70,'DALLES21    ',  13.8000,2,   1,   1,   1,1.05500, -14.6640
    71,'CELILO      ', 230.0000,1,   1,   1,   1,1.04055, -21.9051
    72,'CELILOCA    ', 500.0000,1,   1,   1,   1,1.06918, -19.9602
    73,'COLSTRP     ', 500.0000,1,   1,   1,   1,1.06752,  -9.4709
    74,'COULEE      ', 500.0000,1,   1,   1,   1,1.08379, -13.1501
    75,'GARRISON    ', 500.0000,1,   1,   1,   1,1.02805, -22.0708
    76,'JOHN DAY    ', 500.0000,1,   1,   1,   1,1.06472, -17.2628
    77,'JOHN DAY    ',  13.8000,3,   1,   1,   1,1.00000,   0.0000
    78,'HANFORD     ', 500.0000,1,   1,   1,   1,1.06299, -13.0889
    79,'NORTH G3    ',  20.0000,2,   1,   1,   1,1.00000,  10.9410
    80,'NORTH       ', 500.0000,1,   1,   1,   1,1.05818,  -3.4224
    81,'BURNS       ', 500.0000,1,   1,   1,   1,1.03346, -27.6242
    82,'GRIZZLY     ', 500.0000,1,   1,   1,   1,1.05089, -24.7798
    83,'MALIN       ', 500.0000,1,   1,   1,   1,1.03859, -31.9562
    84,'MIDPOINT    ', 500.0000,1,   1,   1,   1,1.05866, -15.7026
    85,'MIDPOINT    ', 345.0000,1,   1,   1,   1,0.99716, -12.7317
    86,'SUMMER L    ', 500.0000,1,   1,   1,   1,1.04344, -26.4919
    87,'GRIZZLY1    ', 500.0000,1,   1,   1,   1,1.05351, -27.2257
    88,'GRIZZLY2    ', 500.0000,1,   1,   1,   1,1.05074, -23.0627
    89,'MALIN1      ', 500.0000,1,   1,   1,   1,1.03702, -22.1124
    90,'MALIN2      ', 500.0000,1,   1,   1,   1,1.04577, -28.1712
    91,'GRIZZLY3    ', 500.0000,1,   1,   1,   1,1.06432, -30.1475
    92,'GRIZZLY4    ', 500.0000,1,   1,   1,   1,1.05219, -24.8650
    93,'GRIZZLY5    ', 500.0000,1,   1,   1,   1,1.05277, -30.9071
    94,'GRIZZLY6    ', 500.0000,1,   1,   1,   1,1.05375, -25.6035
    95,'GRIZZLY7    ', 500.0000,1,   1,   1,   1,1.06381, -30.4472
    96,'GRIZZLY8    ', 500.0000,1,   1,   1,   1,1.05189, -24.8654
    97,'GRIZZLY9    ', 500.0000,1,   1,   1,   1,1.05200, -31.2494
    98,'GRIZZLYA    ', 500.0000,1,   1,   1,   1,1.05303, -25.6434
    99,'BURNS1      ', 500.0000,1,   1,   1,   1,0.97001,  -4.8692
   100,'CORTINA     ', 200.0000,1,   3,   1,   1,1.12073, -45.9796
   101,'COTWDPGE    ', 200.0000,1,   3,   1,   1,1.12856, -41.5800
   102,'DIABLO      ', 500.0000,1,   2,   1,   1,1.04076, -56.4925
   103,'DIABLO1     ',  25.0000,2,   2,   1,   1,0.98000, -52.6227
   104,'GATES       ', 500.0000,1,   2,   1,   1,1.02943, -58.0966
   105,'GLENN       ', 200.0000,1,   3,   1,   1,1.13220, -45.6619
   106,'LOGAN CR    ', 200.0000,1,   3,   1,   1,1.13194, -45.9292
   107,'LOSBANOS    ', 500.0000,1,   2,   1,   1,1.02956, -60.0765
   108,'MIDWAY      ', 500.0000,1,   2,   1,   1,1.03884, -59.0218
   109,'MIDWAY      ', 200.0000,1,   2,   1,   1,1.14206, -62.8842
   110,'MOSSLAND    ', 500.0000,1,   2,   1,   1,1.02646, -60.3664
   111,'OLINDA      ', 500.0000,1,   3,   1,   1,1.02359, -40.3350
   112,'ROUND MT    ',  20.0000,2,   3,   1,   1,1.02000, -25.3437
   113,'ROUND MT    ', 200.0000,1,   3,   1,   1,1.11665, -35.4271
   114,'ROUND MT    ', 500.0000,1,   3,   1,   1,1.02073, -37.1649
   115,'TABLE MT    ', 500.0000,1,   3,   1,   1,1.00069, -41.5767
   116,'TEVATR      ',  20.0000,2,   3,   1,   1,1.05000, -47.2764
   117,'TEVATR      ', 200.0000,1,   3,   1,   1,1.11980, -51.1690
   118,'TEVATR2     ',  20.0000,2,   3,   1,   1,1.00000, -40.6244
   119,'TEVATR      ', 500.0000,1,   3,   1,   1,0.98931, -48.9106
   120,'OLINDA1     ', 500.0000,1,   3,   1,   1,1.03386, -32.7839
   121,'OLINDA2     ', 500.0000,1,   3,   1,   1,1.00227, -47.8423
   122,'OLINDA3     ', 500.0000,1,   3,   1,   1,1.01341, -40.0548
   123,'OLINDA4     ', 500.0000,1,   3,   1,   1,0.98020, -56.9750
   124,'ROUND1      ', 500.0000,1,   3,   1,   1,1.02534, -30.8866
   125,'ROUND2      ', 500.0000,1,   3,   1,   1,1.00041, -45.8825
   126,'ROUND3      ', 500.0000,1,   3,   1,   1,1.02534, -30.8866
   127,'ROUND4      ', 500.0000,1,   3,   1,   1,1.00041, -45.8825
   128,'TABLE1      ', 500.0000,1,   3,   1,   1,0.99722, -34.9287
   129,'TABLE2      ', 500.0000,1,   3,   1,   1,0.99546, -55.5363
   130,'TABLE3      ', 500.0000,1,   3,   1,   1,1.00279, -36.5298
   131,'TABLE4      ', 500.0000,1,   3,   1,   1,0.99181, -51.4577
   132,'TEVATR1     ', 500.0000,1,   2,   1,   1,0.97380, -46.7734
   133,'TEVATR2     ', 500.0000,1,   2,   1,   1,1.04701, -62.3325
   134,'TEVATR3     ', 500.0000,1,   2,   1,   1,0.96702, -44.7922
   135,'GATES1      ', 500.0000,1,   2,   1,   1,1.04322, -60.4501
   136,'DEVERS      ', 500.0000,1,   2,   1,   1,1.03004, -55.4922
   137,'EAGLROCK    ', 230.0000,1,   2,   1,   1,0.97600, -59.8241
   138,'ELDORADO    ',  20.0000,2,   2,   1,   1,1.02000, -36.7659
   139,'ELDORADO    ', 500.0000,1,   2,   1,   1,1.04672, -43.8853
   140,'LITEHIPE    ',  20.0000,2,   2,   1,   1,0.91786, -49.4102
   141,'LITEHIPE    ',  12.4700,1,   2,   1,   1,0.91959, -56.5084
   142,'LUGO        ', 500.0000,1,   2,   1,   1,1.04078, -56.4108
   143,'MESA CAL    ', 230.0000,1,   2,   1,   1,0.94821, -59.8702
   144,'MIRALOMA    ',  20.0000,2,   2,   1,   1,1.05000, -56.0979
   145,'MIRALOMA    ', 500.0000,1,   2,   1,   1,1.02892, -60.3570
   146,'MIRALOMA    ', 230.0000,1,   2,   1,   1,1.02242, -60.3277
   147,'MOHAVE      ', 500.0000,1,   2,   1,   1,1.06626, -39.9609
   148,'MOHAV1CC    ',  22.0000,2,   2,   1,   1,1.05000, -31.6656
   149,'PARDEE      ',  20.0000,2,   2,   1,   1,1.01000, -48.1752
   150,'PARDEE      ', 230.0000,1,   2,   1,   1,0.99148, -60.4253
   151,'SERRANO     ', 500.0000,1,   2,   1,   1,1.02954, -61.0504
   152,'VALLEY      ', 500.0000,1,   2,   1,   1,1.02872, -59.3033
   153,'VINCENT     ', 500.0000,1,   2,   1,   1,1.04132, -59.0132
   154,'VINCENT     ', 230.0000,1,   2,   1,   1,0.97396, -60.9851
   155,'CAMP WIL    ', 345.0000,1,   1,   1,   1,1.03402, -20.8466
   156,'BENLOMND    ', 345.0000,1,   1,   1,   1,1.03537, -20.7335
   157,'BENLOMND    ', 230.0000,1,   1,   1,   1,1.03857, -21.6309
   158,'EMERY       ', 345.0000,1,   1,   1,   1,1.03406, -13.4409
   159,'EMERY       ',  20.0000,2,   1,   1,   1,1.05000,  -8.7485
   160,'MONA        ', 345.0000,1,   1,   1,   1,1.04571, -20.9366
   161,'NAUGHTON    ', 230.0000,1,   1,   1,   1,1.04217, -18.1772
   162,'NAUGHT      ',  20.0000,2,   1,   1,   1,1.00000, -15.3757
   163,'PINTO PS    ', 345.0000,1,   1,   1,   1,1.03850, -16.7037
   164,'PINTO       ', 345.0000,1,   1,   1,   1,1.04336, -16.4215
   165,'SPAN FRK    ', 345.0000,1,   1,   1,   1,1.02736, -19.5436
   166,'SIGURD      ', 345.0000,1,   1,   1,   1,1.04473, -19.3685
   167,'TERMINAL    ', 345.0000,1,   1,   1,   1,1.02969, -21.5569
   168,'MALIN3      ', 500.0000,1,   3,   1,   1,1.04428, -27.9028
   169,'MALIN4      ', 500.0000,1,   3,   1,   1,1.01547, -41.3622
   170,'MALIN5      ', 500.0000,1,   3,   1,   1,1.04489, -27.0463
   171,'MALIN6      ', 500.0000,1,   3,   1,   1,1.01699, -41.3943
   172,'MALIN7      ', 500.0000,1,   3,   1,   1,1.04131, -25.5482
   173,'MALIN8      ', 500.0000,1,   3,   1,   1,1.02265, -46.8771
   174,'MIDWAY1     ', 500.0000,1,   2,   1,   1,1.02656, -59.0549
   175,'MIDWAY2     ', 500.0000,1,   2,   1,   1,1.03446, -58.9804
   176,'MIDWAY3     ', 500.0000,1,   2,   1,   1,1.03884, -59.0218
   177,'MIDWAY4     ', 500.0000,1,   2,   1,   1,1.04132, -59.0132
   178,'MIDWAY5     ', 500.0000,1,   2,   1,   1,1.02602, -59.0653
   179,'MIDWAY6     ', 500.0000,1,   2,   1,   1,1.03693, -58.9746
   180,'BURNS2      ', 500.0000,1,   1,   1,   1,0.98467, -16.9154
 0 /End of Bus data, Begin Load data
     2,'BL',1,   1,   1,     0.000,     0.000,     0.000,     0.000,  1750.000,    56.000,   1,1
     4,'BL',1,   1,   1,     0.000,     0.000,     0.000,     0.000,   100.000,     0.000,   1,1
     5,'BL',1,   1,   1,     0.000,     0.000,     0.000,     0.000,  2350.000,   127.000,   1,1
     6,'BL',1,   1,   1,     0.000,     0.000,     0.000,     0.000,   100.000,     0.000,   1,1
     8,'BL',1,   1,   1,     0.000,     0.000,     0.000,     0.000,   239.000,    56.000,   1,1
     9,'BL',1,   1,   1,     0.000,     0.000,     0.000,     0.000,   100.000,     0.000,   1,1
    10,'BL',1,   1,   1,     0.000,     0.000,     0.000,     0.000,   139.700,   -23.800,   1,1
    11,'BL',1,   1,   1,     0.000,     0.000,     0.000,     0.000,   100.000,     0.000,   1,1
    12,'BL',1,   2,   1,     0.000,     0.000,     0.000,     0.000,    90.000,   -70.000,   1,1
    13,'BL',1,   2,   1,     0.000,     0.000,     0.000,     0.000,   100.000,     0.000,   1,1
    15,'BL',1,   2,   1,     0.000,     0.000,     0.000,     0.000,   100.000,     0.000,   1,1
    16,'BL',1,   2,   1,     0.000,     0.000,     0.000,     0.000,   793.400,  -207.000,   1,1
    17,'BL',1,   1,   1,     0.000,     0.000,     0.000,     0.000,   840.000,    -5.000,   1,1
    18,'BL',1,   1,   1,     0.000,     0.000,     0.000,     0.000,   100.000,     0.000,   1,1
    19,'BL',1,   2,   1,     0.000,     0.000,     0.000,     0.000,   617.000,    69.000,   1,1
    30,'BL',1,   1,   1,     0.000,     0.000,     0.000,     0.000,   100.000,     0.000,   1,1
    31,'BL',1,   1,   1,     0.000,     0.000,     0.000,     0.000,  4400.000, -1000.000,   1,1
    34,'BL',1,   1,   1,     0.000,     0.000,     0.000,     0.000,  3600.000,  -700.000,   1,1
    35,'BL',1,   1,   1,     0.000,     0.000,     0.000,     0.000,   100.000,     0.000,   1,1
    36,'BL',1,   1,   1,     0.000,     0.000,     0.000,     0.000,   100.000,     0.000,   1,1
    37,'BL',1,   2,   1,     0.000,     0.000,     0.000,     0.000, -1862.000,  -971.000,   1,1
    40,'BL',1,   2,   1,     0.000,     0.000,     0.000,     0.000,   100.000,     0.000,   1,1
    41,'BL',1,   2,   1,     0.000,     0.000,     0.000,     0.000,   135.000,   -27.000,   1,1
    43,'BL',1,   2,   1,     0.000,     0.000,     0.000,     0.000,   100.000,     0.000,   1,1
    44,'BL',1,   1,   1,     0.000,     0.000,     0.000,     0.000,  2053.000,  -907.100,   1,1
    45,'BL',1,   1,   1,     0.000,     0.000,     0.000,     0.000,   100.000,     0.000,   1,1
    46,'BL',1,   2,   1,     0.000,     0.000,     0.000,     0.000,   -72.800,    17.000,   1,1
    47,'BL',1,   2,   1,     0.000,     0.000,     0.000,     0.000,   100.000,     0.000,   1,1
    48,'BL',1,   2,   1,     0.000,     0.000,     0.000,     0.000,   121.000,   -25.000,   1,1
    50,'BL',1,   2,   1,     0.000,     0.000,     0.000,     0.000,   320.000,   -65.000,   1,1
    51,'BL',1,   2,   1,     0.000,     0.000,     0.000,     0.000,   237.200,    63.200,   1,1
    54,'BL',1,   2,   1,     0.000,     0.000,     0.000,     0.000,   138.000,   -28.000,   1,1
    55,'BL',1,   2,   1,     0.000,     0.000,     0.000,     0.000,   807.800,  -132.100,   1,1
    57,'BL',1,   2,   1,     0.000,     0.000,     0.000,     0.000,   117.000,   -24.000,   1,1
    58,'BL',1,   2,   1,     0.000,     0.000,     0.000,     0.000,   121.000,   -25.000,   1,1
    59,'BL',1,   2,   1,     0.000,     0.000,     0.000,     0.000,   887.700,     6.200,   1,1
    60,'BL',1,   2,   1,     0.000,     0.000,     0.000,     0.000, -2771.000, -1654.000,   1,1
    61,'BL',1,   2,   1,     0.000,     0.000,     0.000,     0.000,   401.000,   -80.600,   1,1
    62,'BL',1,   2,   1,     0.000,     0.000,     0.000,     0.000,   205.200,   -17.600,   1,1
    63,'BL',1,   2,   1,     0.000,     0.000,     0.000,     0.000,  -129.000,   -32.200,   1,1
    65,'BL',1,   1,   1,     0.000,     0.000,     0.000,     0.000,   100.000,     0.000,   1,1
    66,'BL',1,   1,   1,     0.000,     0.000,     0.000,     0.000,  1700.000,  -300.000,   1,1
    67,'BL',1,   1,   1,     0.000,     0.000,     0.000,     0.000,   160.000,   -31.250,   1,1
    68,'BL',1,   1,   1,     0.000,     0.000,     0.000,     0.000,   -67.500,  -160.000,   1,1
    69,'BL',1,   1,   1,     0.000,     0.000,     0.000,     0.000,   -44.200,   -22.000,   1,1
    70,'BL',1,   1,   1,     0.000,     0.000,     0.000,     0.000,   100.000,     0.000,   1,1
    71,'BL',1,   1,   1,     0.000,     0.000,     0.000,     0.000,  3137.000, -1681.000,   1,1
    73,'BL',1,   1,   1,     0.000,     0.000,     0.000,     0.000, -1525.000,    50.000,   1,1
    75,'BL',1,   1,   1,     0.000,     0.000,     0.000,     0.000,  2584.000,  -394.000,   1,1
    76,'BL',1,   1,   1,     0.000,     0.000,     0.000,     0.000,  3200.000, -1100.000,   1,1
    77,'BL',1,   1,   1,     0.000,     0.000,     0.000,     0.000,   100.000,     0.000,   1,1
    78,'BL',1,   1,   1,     0.000,     0.000,     0.000,     0.000,  3500.000,  -500.000,   1,1
    79,'BL',1,   1,   1,     0.000,     0.000,     0.000,     0.000,   100.000,     0.000,   1,1
    80,'BL',1,   1,   1,     0.000,     0.000,     0.000,     0.000,  5000.000,  -400.000,   1,1
    82,'BL',1,   1,   1,     0.000,     0.000,     0.000,     0.000,   -66.600,    97.000,   1,1
    83,'BL',1,   1,   1,     0.000,     0.000,     0.000,     0.000,  -339.000,   119.000,   1,1
    85,'BL',1,   1,   1,     0.000,     0.000,     0.000,     0.000,   610.000,   414.000,   1,1
   100,'BL',1,   3,   1,     0.000,     0.000,     0.000,     0.000,   -43.300,   -20.000,   1,1
   101,'BL',1,   3,   1,     0.000,     0.000,     0.000,     0.000,   210.400,    77.000,   1,1
   102,'BL',1,   2,   1,     0.000,     0.000,     0.000,     0.000,    50.000,   -25.000,   1,1
   103,'BL',1,   2,   1,     0.000,     0.000,     0.000,     0.000,   100.000,     0.000,   1,1
   104,'BL',1,   2,   1,     0.000,     0.000,     0.000,     0.000,   305.000,     7.600,   1,1
   105,'BL',1,   3,   1,     0.000,     0.000,     0.000,     0.000,    27.500,     0.100,   1,1
   106,'BL',1,   3,   1,     0.000,     0.000,     0.000,     0.000,     8.010,     0.000,   1,1
   107,'BL',1,   2,   1,     0.000,     0.000,     0.000,     0.000,   265.000,   -14.000,   1,1
   108,'BL',1,   2,   1,     0.000,     0.000,     0.000,     0.000,    55.600,   329.000,   1,1
   109,'BL',1,   2,   1,     0.000,     0.000,     0.000,     0.000,   777.600,   -32.600,   1,1
   110,'BL',1,   2,   1,     0.000,     0.000,     0.000,     0.000,    40.000,   -21.500,   1,1
   111,'BL',1,   3,   1,     0.000,     0.000,     0.000,     0.000,  -189.000,   -61.500,   1,1
   112,'BL',1,   3,   1,     0.000,     0.000,     0.000,     0.000,   100.000,     0.000,   1,1
   113,'BL',1,   3,   1,     0.000,     0.000,     0.000,     0.000,   148.000,     0.000,   1,1
   115,'BL',1,   3,   1,     0.000,     0.000,     0.000,     0.000,    -0.700,  -118.500,   1,1
   116,'BL',1,   3,   1,     0.000,     0.000,     0.000,     0.000,   100.000,     0.000,   1,1
   117,'BL',1,   3,   1,     0.000,     0.000,     0.000,     0.000,   884.000,   -54.800,   1,1
   118,'BL',1,   3,   1,     0.000,     0.000,     0.000,     0.000,   100.000,     0.000,   1,1
   119,'BL',1,   3,   1,     0.000,     0.000,     0.000,     0.000,  5661.000, -3491.000,   1,1
   136,'BL',1,   2,   1,     0.000,     0.000,     0.000,     0.000,   856.000,   -19.600,   1,1
   137,'BL',1,   2,   1,     0.000,     0.000,     0.000,     0.000,   175.000,   -18.000,   1,1
   138,'BL',1,   2,   1,     0.000,     0.000,     0.000,     0.000,   100.000,     0.000,   1,1
   139,'BL',1,   2,   1,     0.000,     0.000,     0.000,     0.000,   902.300,    11.400,   1,1
   140,'BL',1,   2,   1,     0.000,     0.000,     0.000,     0.000,   100.000,     0.000,   1,1
   141,'BL',1,   2,   1,     0.000,     0.000,     0.000,     0.000,  3000.000,  -602.300,   1,1
   142,'BL',1,   2,   1,     0.000,     0.000,     0.000,     0.000,   204.200,    28.200,   1,1
   143,'BL',1,   2,   1,     0.000,     0.000,     0.000,     0.000,   377.400,   -64.500,   1,1
   144,'BL',1,   2,   1,     0.000,     0.000,     0.000,     0.000,   100.000,     0.000,   1,1
   145,'BL',1,   2,   1,     0.000,     0.000,     0.000,     0.000,  3098.000, -1189.000,   1,1
   148,'BL',1,   2,   1,     0.000,     0.000,     0.000,     0.000,   100.000,     0.000,   1,1
   149,'BL',1,   2,   1,     0.000,     0.000,     0.000,     0.000,   100.000,     0.000,   1,1
   150,'BL',1,   2,   1,     0.000,     0.000,     0.000,     0.000,  3118.000,   -78.000,   1,1
   151,'BL',1,   2,   1,     0.000,     0.000,     0.000,     0.000,  1230.000,   -72.800,   1,1
   152,'BL',1,   2,   1,     0.000,     0.000,     0.000,     0.000,   406.000,   -41.000,   1,1
   154,'BL',1,   2,   1,     0.000,     0.000,     0.000,     0.000,  1689.593750,    195.032685,   1,1
   155,'BL',1,   1,   1,     0.000,     0.000,     0.000,     0.000,   457.700,   -81.700,   1,1
   156,'BL',1,   1,   1,     0.000,     0.000,     0.000,     0.000,    33.900,   -11.900,   1,1
   157,'BL',1,   1,   1,     0.000,     0.000,     0.000,     0.000,   148.000,     7.900,   1,1
   158,'BL',1,   1,   1,     0.000,     0.000,     0.000,     0.000,   116.100,   -38.400,   1,1
   159,'BL',1,   1,   1,     0.000,     0.000,     0.000,     0.000,   100.000,     0.000,   1,1
   160,'BL',1,   1,   1,     0.000,     0.000,     0.000,     0.000,   -62.000,   -12.800,   1,1
   161,'BL',1,   1,   1,     0.000,     0.000,     0.000,     0.000,   255.000,  -100.000,   1,1
   162,'BL',1,   1,   1,     0.000,     0.000,     0.000,     0.000,   100.000,     0.000,   1,1
   164,'BL',1,   1,   1,     0.000,     0.000,     0.000,     0.000,    31.600,   -11.500,   1,1
   165,'BL',1,   1,   1,     0.000,     0.000,     0.000,     0.000,   141.200,   -71.400,   1,1
   166,'BL',1,   1,   1,     0.000,     0.000,     0.000,     0.000,   379.000,    43.000,   1,1
   167,'BL',1,   1,   1,     0.000,     0.000,     0.000,     0.000,   185.000,   -78.500,   1,1
 0 /End of Load data, Begin Fixed shunt data
     7,'1 ',1,     0.000,  -113.000
     8,'1 ',1,     0.000,  -155.000
    12,'1 ',1,     0.000,  -190.000
    14,'1 ',1,     0.000,  -391.000
    16,'1 ',1,     0.000,  -146.000
    17,'1 ',1,     0.000,   390.000
    19,'1 ',1,     0.000,  -427.000
    37,'1 ',1,     0.000,   912.000
    44,'1 ',1,     0.000,   430.000
    49,'1 ',1,     0.000,   -80.000
    60,'1 ',1,     0.000,  2146.000
    63,'1 ',1,     0.000,  -108.000
    68,'1 ',1,     0.000,   576.850
    71,'1 ',1,     0.000,   792.000
    72,'1 ',1,     0.000,   462.000
    76,'1 ',1,     0.000,  1019.350
    78,'1 ',1,     0.000,   550.000
    80,'1 ',1,     0.000,  1200.000
    81,'1 ',1,     0.000,  -220.000
    82,'1 ',1,     0.000,  -674.000
    83,'1 ',1,     0.000,  -110.000
    84,'1 ',1,     0.000,  -220.000
    85,'1 ',1,     0.000,  -870.000
   104,'1 ',1,     0.000,   -91.000
   108,'1 ',1,     0.000,  -327.000
   109,'1 ',1,     0.000,  -130.000
   113,'1 ',1,     0.000,  -128.000
   114,'1 ',1,     0.000,   -91.000
   115,'1 ',1,     0.000,   -91.000
   117,'1 ',1,     0.000,   -32.000
   119,'1 ',1,     0.000,  1500.000
   139,'1 ',1,     0.000,  -319.000
   145,'1 ',1,     0.000,   400.000
   147,'1 ',1,     0.000,  -196.000
   154,'1 ',1,     0.000,  -190.000
   155,'1 ',1,     0.000,   -60.000
   158,'1 ',1,     0.000,  -220.000
   164,'1 ',1,     0.000,   -18.000
   166,'1 ',1,     0.000,   -50.000
   180,'1 ',1,     0.000,  -220.000
 0 /End of Fixed shunt data, Begin Generator data
     4,'1 ',   800.000,   102.849,   300.000,  -300.000,1.04000,     0,   914.000, 0.00000E+0, 1.45000E-1, 0.00000E+0, 0.00000E+0,1.00000,1,  100.0,  9999.000,     0.000,   1,1.0000
     6,'1 ',  1048.000,   -97.725,   400.000,  -400.000,0.95000,     0,  1488.000, 0.00000E+0, 1.40000E-1, 0.00000E+0, 0.00000E+0,1.00000,1,  100.0,  9999.000,     0.000,   1,1.0000
     9,'1 ',  2160.000,   -52.062,   700.000,  -500.000,1.00000,     0,  2458.000, 0.00000E+0, 1.55000E-1, 0.00000E+0, 0.00000E+0,1.00000,1,  100.0,  9999.000,     0.000,   1,1.0000
    11,'1 ',  2050.000,   495.478,   900.000,  -900.000,1.00000,     0,  3000.000, 0.00000E+0, 1.40000E-1, 0.00000E+0, 0.00000E+0,1.00000,1,  100.0,  9999.000,     0.000,   1,1.0000
    13,'1 ',  1690.000,   219.400,   700.000,  -280.000,1.00000,     0,  3540.000, 0.00000E+0, 1.30000E-1, 0.00000E+0, 0.00000E+0,1.00000,1,  100.0,  9999.000,     0.000,   1,1.0000
    15,'1 ',  2640.000,   420.128,  1300.000,  -900.000,0.96000,     0,  3118.000, 0.00000E+0, 2.25000E-1, 0.00000E+0, 0.00000E+0,1.00000,1,  100.0,  9999.000,     0.000,   1,1.0000
    18,'1 ',   962.000,   148.858,   300.000,  -300.000,1.00000,     0,  2054.000, 0.00000E+0, 1.45000E-1, 0.00000E+0, 0.00000E+0,1.00000,1,  100.0,  9999.000,     0.000,   1,1.0000
    30,'1 ',  4450.000,  1009.069,  4000.000, -4000.000,1.00000,     0,  9004.000, 0.00000E+0, 9.00000E-2, 0.00000E+0, 0.00000E+0,1.00000,1,  100.0,  9999.000,     0.000,   1,1.0000
    35,'1 ',  4480.000,  1140.084,  5320.000, -3500.000,1.02000,     0,  6100.000, 0.00000E+0, 2.39000E-1, 0.00000E+0, 0.00000E+0,1.00000,1,  100.0,  9999.000,     0.000,   1,1.0000
    36,'1 ',  1640.000,   313.757,   600.000,  -525.000,1.00900,     0,  1770.000, 0.00000E+0, 1.55000E-1, 0.00000E+0, 0.00000E+0,1.00000,1,  100.0,  9999.000,     0.000,   1,1.0000
    40,'1 ',   200.000,     3.584,   268.000,  -134.000,1.02000,     0,   500.000, 0.00000E+0, 8.90000E-2, 0.00000E+0, 0.00000E+0,1.00000,1,  100.0,  9999.000,     0.000,   1,1.0000
    43,'1 ',   325.000,   111.062,   300.000,  -220.000,1.00000,     0,   540.000, 0.00000E+0, 1.55000E-1, 0.00000E+0, 0.00000E+0,1.00000,1,  100.0,  9999.000,     0.000,   1,1.0000
    45,'1 ',  1780.000,   681.851,   850.000,  -440.000,1.05000,     0,  1982.000, 0.00000E+0, 1.50000E-1, 0.00000E+0, 0.00000E+0,1.00000,1,  100.0,  9999.000,     0.000,   1,1.0000
    47,'1 ',   110.000,    44.469,   100.000,  -100.000,1.02000,     0,   113.000, 0.00000E+0, 1.40000E-1, 0.00000E+0, 0.00000E+0,1.00000,1,  100.0,  9999.000,     0.000,   1,1.0000
    65,'1 ',  2910.000,   768.499,  1500.000, -1000.000,1.00000,     0,  3085.000, 0.00000E+0, 1.28000E-1, 0.00000E+0, 0.00000E+0,1.00000,1,  100.0,  9999.000,     0.000,   1,1.0000
    70,'1 ',  1301.000,   627.955,   992.000,  -711.000,1.05500,     0,  1199.000, 0.00000E+0, 2.40000E-1, 0.00000E+0, 0.00000E+0,1.00000,1,  100.0,  9999.000,     0.000,   1,1.0000
    77,'1 ',  7775.702,  1966.341,  2649.000, -1850.000,1.00000,     0,  5421.000, 0.00000E+0, 2.40000E-1, 0.00000E+0, 0.00000E+0,1.00000,1,  100.0,  9999.000,     0.000,   1,1.0000
    79,'1 ',  9950.000,  1534.627,  5780.000, -2000.000,1.00000,     0, 13000.000, 0.00000E+0, 1.27000E-1, 0.00000E+0, 0.00000E+0,1.00000,1,  100.0,  9999.000,     0.000,   1,1.0000
   103,'1 ',   765.000,   -89.413,   330.000,  -310.000,0.98000,     0,  1685.000, 0.00000E+0, 2.50000E-1, 0.00000E+0, 0.00000E+0,1.00000,1,  100.0,  9999.000,     0.000,   1,1.0000
   112,'1 ',  1057.000,    60.611,   400.000,  -400.000,1.02000,     0,  1022.000, 0.00000E+0, 1.40000E-1, 0.00000E+0, 0.00000E+0,1.00000,1,  100.0,  9999.000,     0.000,   1,1.0000
   116,'1 ',   594.000,   240.345,   600.000,  -300.000,1.05000,     0,   895.000, 0.00000E+0, 2.15000E-1, 0.00000E+0, 0.00000E+0,1.00000,1,  100.0,  9999.000,     0.000,   1,1.0000
   118,'1 ',  3467.000,  1865.578,  2500.000, -1000.000,1.00000,     0,  6840.000, 0.00000E+0, 1.40000E-1, 0.00000E+0, 0.00000E+0,1.00000,1,  100.0,  9999.000,     0.000,   1,1.0000
   138,'1 ',   982.700,   -98.575,   300.000,  -300.000,1.02000,     0,  2104.000, 0.00000E+0, 2.15000E-1, 0.00000E+0, 0.00000E+0,1.00000,1,  100.0,  9999.000,     0.000,   1,1.0000
   140,'1 ',  3004.000,   650.000,   650.000,  -300.000,1.02000,     0,  9000.000, 0.00000E+0, 9.50000E-2, 0.00000E+0, 0.00000E+0,1.00000,1,  100.0,  9999.000,     0.000,   1,1.0000
   144,'1 ',  1690.000,   840.769,   900.000,  -400.000,1.05000,     0,  3000.000, 0.00000E+0, 2.40000E-1, 0.00000E+0, 0.00000E+0,1.00000,1,  100.0,  9999.000,     0.000,   1,1.0000
   148,'1 ',  1680.000,   483.592,   700.000,  -300.000,1.05000,     0,  1818.000, 0.00000E+0, 1.55000E-1, 0.00000E+0, 0.00000E+0,1.00000,1,  100.0,  9999.000,     0.000,   1,1.0000
   149,'1 ',  2200.000,   541.430,   600.000,  -600.000,1.01000,     0,  2500.000, 0.00000E+0, 1.35000E-1, 0.00000E+0, 0.00000E+0,1.00000,1,  100.0,  9999.000,     0.000,   1,1.0000
   159,'1 ',  1665.000,    23.189,  9999.000, -9999.000,1.05000,     0,  2229.000, 0.00000E+0, 1.30000E-1, 0.00000E+0, 0.00000E+0,1.00000,1,  100.0,  9999.000,     0.000,   1,1.0000
   162,'1 ',   445.000,   107.506,  9999.000, -9999.000,1.00000,     0,   832.000, 0.00000E+0, 1.93000E-1, 0.00000E+0, 0.00000E+0,1.00000,1,  100.0,  9999.000,     0.000,   1,1.0000
 0 /End of Generator data, Begin Branch data
     3,      8,'1 ', 1.79000E-3, 1.98800E-2,   2.57600,    0.00,    0.00,    0.00,  0.00000,  0.00000,  0.00000,  0.00000,1,1,   0.00,   1,1.0000
     5,     17,'1 ', 9.77000E-3, 1.10000E-1,   2.00000,    0.00,    0.00,    0.00,  0.00000,  0.00000,  0.00000,  0.00000,1,2,   0.00,   1,1.0000
     5,    160,'1 ', 8.11000E-3, 1.36900E-1,   2.43480,    0.00,    0.00,    0.00,  0.00000,  0.00000,  0.00000,  0.00000,1,1,   0.00,   1,1.0000
     7,     28,'1 ',-0.00000E+0,-4.08000E-3,   0.00000,    0.00,    0.00,    0.00,  0.00000,  0.00000,  0.00000,  0.00000,1,1,   0.00,   1,1.0000
     8,     17,'1 ', 5.00000E-4, 5.30000E-3,   0.08820,    0.00,    0.00,    0.00,  0.00000,  0.00000,  0.00000,  0.00000,1,1,   0.00,   1,1.0000
     8,    163,'1 ', 4.80000E-3, 4.36000E-2,   0.70780,    0.00,    0.00,    0.00,  0.00000,  0.00000,  0.00000,  0.00000,1,2,   0.00,   1,1.0000
    12,     20,'1 ',-0.00000E+0,-6.34000E-3,   0.00000,    0.00,    0.00,    0.00,  0.00000,  0.00000,  0.00000,  0.00000,1,1,   0.00,   1,1.0000
    12,     22,'1 ',-0.00000E+0,-1.18800E-2,   0.00000,    0.00,    0.00,    0.00,  0.00000,  0.00000,  0.00000,  0.00000,1,1,   0.00,   1,1.0000
    12,    139,'1 ', 2.80000E-3, 2.11000E-2,   1.01940,    0.00,    0.00, 1630.00,  0.00000,  0.00000,  0.00000,  0.00000,1,1,   0.00,   1,1.0000
    14,     21,'1 ',-0.00000E+0,-6.34000E-3,   0.00000,    0.00,    0.00,    0.00,  0.00000,  0.00000,  0.00000,  0.00000,1,2,   0.00,   1,1.0000
    14,     24,'1 ',-0.00000E+0,-8.26000E-3,   0.00000,    0.00,    0.00,    0.00,  0.00000,  0.00000,  0.00000,  0.00000,1,1,   0.00,   1,1.0000
    14,     26,'1 ',-0.00000E+0,-1.79500E-2,   0.00000,    0.00,    0.00,    0.00,  0.00000,  0.00000,  0.00000,  0.00000,1,1,   0.00,   1,1.0000
    14,     29,'1 ',-0.00000E+0,-6.12000E-3,   0.00000,    0.00,    0.00,    0.00,  0.00000,  0.00000,  0.00000,  0.00000,1,2,   0.00,   1,1.0000
    16,     19,'1 ', 4.00000E-4, 9.60000E-3,   0.90380,    0.00,    0.00,    0.00,  0.00000,  0.00000,  0.00000,  0.00000,1,1,   0.00,   1,1.0000
    16,     19,'2 ', 4.00000E-4, 9.60000E-3,   0.90380,    0.00,    0.00,    0.00,  0.00000,  0.00000,  0.00000,  0.00000,1,1,   0.00,   1,1.0000
    16,    136,'1 ', 2.59000E-3, 2.96700E-2,   2.15300,    0.00,    0.00, 1800.00,  0.00000,  0.00000,  0.00000,  0.00000,1,1,   0.00,   1,1.0000
    16,    136,'2 ', 2.59000E-3, 2.96700E-2,   2.15300,    0.00,    0.00, 1800.00,  0.00000,  0.00000,  0.00000,  0.00000,1,1,   0.00,   1,1.0000
    19,     23,'1 ',-0.00000E+0,-1.18800E-2,   0.00000,    0.00,    0.00,    0.00,  0.00000,  0.00000,  0.00000,  0.00000,1,2,   0.00,   1,1.0000
    19,     25,'1 ',-0.00000E+0,-8.26000E-3,   0.00000,    0.00,    0.00,    0.00,  0.00000,  0.00000,  0.00000,  0.00000,1,2,   0.00,   1,1.0000
    20,     21,'1 ', 7.70000E-4, 1.80400E-2,   1.39840,    0.00,    0.00,    0.00,  0.00000,  0.00000,  0.00000,  0.00000,1,1,   0.00,   1,1.0000
    22,     23,'1 ', 2.41000E-3, 5.86500E-2,   4.86560,    0.00,    0.00,    0.00,  0.00000,  0.00000,  0.00000,  0.00000,1,1,   0.00,   1,1.0000
    24,     25,'1 ', 1.79000E-3, 4.24400E-2,   3.39220,    0.00,    0.00,    0.00,  0.00000,  0.00000,  0.00000,  0.00000,1,1,   0.00,   1,1.0000
    26,     27,'1 ', 2.07000E-3, 4.95900E-2,   3.95160,    0.00,    0.00,    0.00,  0.00000,  0.00000,  0.00000,  0.00000,1,1,   0.00,   1,1.0000
    27,    139,'1 ',-0.00000E+0,-1.79500E-2,   0.00000,    0.00,    0.00,    0.00,  0.00000,  0.00000,  0.00000,  0.00000,1,1,   0.00,   1,1.0000
    28,     29,'1 ', 1.77000E-3, 4.18900E-2,   3.34460,    0.00,    0.00,    0.00,  0.00000,  0.00000,  0.00000,  0.00000,1,1,   0.00,   1,1.0000
    31,     32,'1 ', 3.50000E-3, 7.00000E-2,   4.60600,    0.00,    0.00,    0.00,  0.00000,  0.00000,  0.00000,  0.00000,1,1,   0.00,   1,1.0000
    31,     80,'1 ', 8.30000E-4, 2.39000E-2,   3.30000,    0.00,    0.00,    0.00,  0.00000,  0.00000,  0.00000,  0.00000,1,1,   0.00,   1,1.0000
    33,     34,'1 ', 2.00000E-3, 2.00000E-2,   0.80000,    0.00,    0.00,    0.00,  0.00000,  0.00000,  0.00000,  0.00000,1,1,   0.00,   1,1.0000
    37,     38,'1 ', 7.40000E-4, 1.86100E-2,   1.40260,    0.00,    0.00,    0.00,  0.00000,  0.00000,  0.00000,  0.00000,1,1,   0.00,   1,1.0000
    37,     56,'1 ', 8.20000E-4, 1.66800E-2,   1.18800,    0.00,    0.00,    0.00,  0.00000,  0.00000,  0.00000,  0.00000,1,1,   0.00,   1,1.0000
    37,     64,'1 ',-0.00000E+0, 1.59000E-3,   0.12002,    0.00,    0.00,    0.00,  0.00000,  0.00000,  0.00000,  0.00000,1,1,   0.00,   1,1.0000
    37,     64,'2 ',-0.00000E+0, 1.59000E-3,   0.12002,    0.00,    0.00,    0.00,  0.00000,  0.00000,  0.00000,  0.00000,1,1,   0.00,   1,1.0000
    39,     46,'1 ', 2.21000E-3, 3.34600E-2,   0.07338,    0.00,    0.00,    0.00,  0.00000,  0.00000,  0.00000,  0.00000,1,1,   0.00,   1,1.0000
    39,     48,'1 ', 2.90000E-3, 3.80000E-2,   0.08240,    0.00,    0.00,    0.00,  0.00000,  0.00000,  0.00000,  0.00000,1,1,   0.00,   1,1.0000
    39,     59,'1 ', 3.09000E-3, 4.67700E-2,   0.10080,    0.00,    0.00,    0.00,  0.00000,  0.00000,  0.00000,  0.00000,1,1,   0.00,   1,1.0000
    39,     60,'1 ', 2.26000E-3, 3.42200E-2,   0.07506,    0.00,    0.00,    0.00,  0.00000,  0.00000,  0.00000,  0.00000,1,1,   0.00,   1,1.0000
    41,     55,'1 ', 4.70000E-4, 7.23000E-3,   0.01624,    0.00,    0.00,    0.00,  0.00000,  0.00000,  0.00000,  0.00000,1,2,   0.00,   1,1.0000
    41,     58,'1 ', 3.50000E-4, 5.36000E-3,   0.01204,    0.00,    0.00,    0.00,  0.00000,  0.00000,  0.00000,  0.00000,1,1,   0.00,   1,1.0000
    42,     50,'1 ', 2.20000E-3, 3.42200E-2,   0.07716,    0.00,    0.00,    0.00,  0.00000,  0.00000,  0.00000,  0.00000,1,2,   0.00,   1,1.0000
    42,     50,'2 ', 2.38000E-3, 3.66900E-2,   0.08284,    0.00,    0.00,    0.00,  0.00000,  0.00000,  0.00000,  0.00000,1,2,   0.00,   1,1.0000
    42,     57,'1 ', 2.01000E-3, 3.07400E-2,   0.06886,    0.00,    0.00,    0.00,  0.00000,  0.00000,  0.00000,  0.00000,1,2,   0.00,   1,1.0000
    42,     58,'1 ', 2.81000E-3, 4.29600E-2,   0.09648,    0.00,    0.00,    0.00,  0.00000,  0.00000,  0.00000,  0.00000,1,1,   0.00,   1,1.0000
    44,    160,'1 ', 1.80000E-3, 2.45000E-2,   0.43920,    0.00,    0.00,    0.00,  0.00000,  0.00000,  0.00000,  0.00000,1,1,   0.00,   1,1.0000
    44,    160,'2 ', 1.80000E-3, 2.45000E-2,   0.43920,    0.00,    0.00,    0.00,  0.00000,  0.00000,  0.00000,  0.00000,1,1,   0.00,   1,1.0000
    46,     48,'1 ', 2.90000E-4, 4.34000E-3,   0.00950,    0.00,    0.00,    0.00,  0.00000,  0.00000,  0.00000,  0.00000,1,2,   0.00,   1,1.0000
    48,     55,'1 ', 2.29000E-3, 1.58300E-2,   0.03060,    0.00,    0.00,    0.00,  0.00000,  0.00000,  0.00000,  0.00000,1,1,   0.00,   1,1.0000
    48,     55,'2 ', 2.29000E-3, 1.58300E-2,   0.03060,    0.00,    0.00,    0.00,  0.00000,  0.00000,  0.00000,  0.00000,1,1,   0.00,   1,1.0000
    48,     59,'1 ', 1.41000E-3, 9.67000E-3,   0.01940,    0.00,    0.00,    0.00,  0.00000,  0.00000,  0.00000,  0.00000,1,1,   0.00,   1,1.0000
    48,     59,'2 ', 1.41000E-3, 9.67000E-3,   0.01940,    0.00,    0.00,    0.00,  0.00000,  0.00000,  0.00000,  0.00000,1,1,   0.00,   1,1.0000
    48,     59,'3 ', 1.61000E-3, 9.71000E-3,   0.01928,    0.00,    0.00,    0.00,  0.00000,  0.00000,  0.00000,  0.00000,1,1,   0.00,   1,1.0000
    48,     59,'4 ', 1.61000E-3, 9.71000E-3,   0.01928,    0.00,    0.00,    0.00,  0.00000,  0.00000,  0.00000,  0.00000,1,1,   0.00,   1,1.0000
    48,     60,'1 ', 2.70000E-4, 3.93000E-3,   0.00918,    0.00,    0.00,    0.00,  0.00000,  0.00000,  0.00000,  0.00000,1,1,   0.00,   1,1.0000
    48,     60,'2 ', 2.70000E-4, 3.93000E-3,   0.00918,    0.00,    0.00,    0.00,  0.00000,  0.00000,  0.00000,  0.00000,1,1,   0.00,   1,1.0000
    48,     60,'3 ', 2.70000E-4, 3.93000E-3,   0.00918,    0.00,    0.00,    0.00,  0.00000,  0.00000,  0.00000,  0.00000,1,1,   0.00,   1,1.0000
    48,     62,'1 ', 1.38000E-3, 1.11600E-2,   0.02470,    0.00,    0.00,    0.00,  0.00000,  0.00000,  0.00000,  0.00000,1,1,   0.00,   1,1.0000
    48,     62,'2 ', 1.38000E-3, 1.11600E-2,   0.02470,    0.00,    0.00,    0.00,  0.00000,  0.00000,  0.00000,  0.00000,1,1,   0.00,   1,1.0000
    49,     64,'1 ', 8.30000E-4, 1.88400E-2,   1.66670,    0.00,    0.00,    0.00,  0.00000,  0.00000,  0.00000,  0.00000,1,2,   0.00,   1,1.0000
    50,     57,'1 ', 3.70000E-4, 3.66000E-3,   0.00830,    0.00,    0.00,    0.00,  0.00000,  0.00000,  0.00000,  0.00000,1,1,   0.00,   1,1.0000
    50,     58,'1 ', 5.50000E-4, 5.86000E-3,   0.01246,    0.00,    0.00,    0.00,  0.00000,  0.00000,  0.00000,  0.00000,1,1,   0.00,   1,1.0000
    52,     63,'1 ', 1.07000E-2, 7.90500E-2,   0.36670,    0.00,    0.00,    0.00,  0.00000,  0.00000,  0.00000,  0.00000,1,1,   0.00,   1,1.0000
    53,     63,'1 ', 1.07000E-2, 7.90500E-2,   0.36670,    0.00,    0.00,    0.00,  0.00000,  0.00000,  0.00000,  0.00000,1,1,   0.00,   1,1.0000
    54,     57,'1 ', 7.30000E-4, 1.02500E-2,   0.02558,    0.00,    0.00,    0.00,  0.00000,  0.00000,  0.00000,  0.00000,1,2,   0.00,   1,1.0000
    54,     57,'2 ', 7.30000E-4, 1.02500E-2,   0.02558,    0.00,    0.00,    0.00,  0.00000,  0.00000,  0.00000,  0.00000,1,2,   0.00,   1,1.0000
    55,     58,'1 ', 1.19000E-3, 1.24400E-2,   0.02798,    0.00,    0.00,    0.00,  0.00000,  0.00000,  0.00000,  0.00000,1,1,   0.00,   1,1.0000
    55,     58,'2 ', 1.19000E-3, 1.24400E-2,   0.02798,    0.00,    0.00,    0.00,  0.00000,  0.00000,  0.00000,  0.00000,1,1,   0.00,   1,1.0000
    55,     62,'1 ', 1.28000E-3, 9.79000E-3,   0.02120,    0.00,    0.00,    0.00,  0.00000,  0.00000,  0.00000,  0.00000,1,2,   0.00,   1,1.0000
    57,     58,'1 ', 1.10000E-3, 1.18900E-2,   0.02514,    0.00,    0.00,    0.00,  0.00000,  0.00000,  0.00000,  0.00000,1,1,   0.00,   1,1.0000
    61,    137,'1 ', 1.40000E-3, 2.64000E-2,   0.10200,    0.00,    0.00, 3070.00,  0.00000,  0.00000,  0.00000,  0.00000,1,2,   0.00,   1,1.0000
    61,    150,'1 ', 6.50000E-4, 1.18700E-2,   0.04672,    0.00,    0.00, 3070.00,  0.00000,  0.00000,  0.00000,  0.00000,1,2,   0.00,   1,1.0000
    61,    150,'2 ', 6.50000E-4, 1.18700E-2,   0.04672,    0.00,    0.00, 3070.00,  0.00000,  0.00000,  0.00000,  0.00000,1,2,   0.00,   1,1.0000
    64,    139,'1 ', 1.79000E-3, 2.52400E-2,   0.53546,    0.00,    0.00,    0.00,  0.00000,  0.00000,  0.00000,  0.00000,1,2,   0.00,   1,1.0000
    64,    139,'2 ', 1.79000E-3, 2.52400E-2,   0.53546,    0.00,    0.00,    0.00,  0.00000,  0.00000,  0.00000,  0.00000,1,2,   0.00,   1,1.0000
    64,    142,'1 ', 2.00000E-4, 4.10000E-3,   0.29620,    0.00,    0.00,    0.00,  0.00000,  0.00000,  0.00000,  0.00000,1,2,   0.00,   1,1.0000
    66,     78,'1 ', 7.00000E-4, 7.40000E-2,   4.87000,    0.00,    0.00,    0.00,  0.00000,  0.00000,  0.00000,  0.00000,1,2,   0.00,   1,1.0000
    68,     71,'1 ', 6.00000E-5, 1.31000E-3,   0.00378,    0.00,    0.00, 3020.00,  0.00000,  0.00000,  0.00000,  0.00000,1,1,   0.00,   1,1.0000
    68,     71,'2 ', 6.00000E-5, 1.16000E-3,   0.00332,    0.00,    0.00, 3020.00,  0.00000,  0.00000,  0.00000,  0.00000,1,1,   0.00,   1,1.0000
    69,     72,'1 ', 1.00000E-5, 3.00000E-4,   0.01434,    0.00,    0.00, 3450.00,  0.00000,  0.00000,  0.00000,  0.00000,1,1,   0.00,   1,1.0000
    69,     72,'2 ', 1.00000E-5, 3.00000E-4,   0.01844,    0.00,    0.00, 3450.00,  0.00000,  0.00000,  0.00000,  0.00000,1,1,   0.00,   1,1.0000
    69,     76,'1 ', 2.30000E-4, 4.51000E-3,   0.33320,    0.00,    0.00, 2175.00,  0.00000,  0.00000,  0.00000,  0.00000,1,1,   0.00,   1,1.0000
    69,     76,'2 ', 2.00000E-4, 4.46000E-3,   0.30500,    0.00,    0.00, 2175.00,  0.00000,  0.00000,  0.00000,  0.00000,1,1,   0.00,   1,1.0000
    73,     75,'1 ', 1.79000E-3, 1.40500E-2,   3.68000,    0.00,    0.00,    0.00,  0.00000,  0.00000,  0.00000,  0.00000,1,2,   0.00,   1,1.0000
    74,     78,'1 ', 1.13000E-3, 2.06900E-2,   1.85530,    0.00,    0.00,    0.00,  0.00000,  0.00000,  0.00000,  0.00000,1,2,   0.00,   1,1.0000
    75,     76,'1 ', 1.96000E-3, 3.30400E-2,   1.88000,    0.00,    0.00,    0.00,  0.00000,  0.00000,  0.00000,  0.00000,1,1,   0.00,   1,1.0000
    75,     78,'1 ', 1.42000E-3, 2.25800E-2,   1.88000,    0.00,    0.00,    0.00,  0.00000,  0.00000,  0.00000,  0.00000,1,1,   0.00,   1,1.0000
    76,     78,'1 ', 1.20000E-3, 2.31600E-2,   1.71520,    0.00,    0.00,    0.00,  0.00000,  0.00000,  0.00000,  0.00000,1,2,   0.00,   1,1.0000
    76,     78,'2 ', 3.00000E-4, 2.00000E-2,   3.60000,    0.00,    0.00,    0.00,  0.00000,  0.00000,  0.00000,  0.00000,1,2,   0.00,   1,1.0000
    76,     82,'1 ', 6.30000E-4, 1.41200E-2,   1.09760,    0.00,    0.00, 3450.00,  0.00000,  0.00000,  0.00000,  0.00000,1,2,   0.00,   1,1.0000
    76,     82,'2 ', 1.09000E-3, 2.40800E-2,   1.55540,    0.00,    0.00, 3020.00,  0.00000,  0.00000,  0.00000,  0.00000,1,2,   0.00,   1,1.0000
    76,     82,'3 ', 1.08000E-3, 2.40900E-2,   1.55350,    0.00,    0.00, 3020.00,  0.00000,  0.00000,  0.00000,  0.00000,1,2,   0.00,   1,1.0000
    78,     80,'1 ', 2.00000E-4, 8.20000E-3,   1.30000,    0.00,    0.00,    0.00,  0.00000,  0.00000,  0.00000,  0.00000,1,2,   0.00,   1,1.0000
    78,     80,'2 ', 2.00000E-4, 8.20000E-3,   1.30000,    0.00,    0.00,    0.00,  0.00000,  0.00000,  0.00000,  0.00000,1,2,   0.00,   1,1.0000
    81,     99,'1 ', 2.64000E-3, 5.35600E-2,   5.29070,    0.00,    0.00, 3600.00,  0.00000,  0.00000,  0.00000,  0.00000,1,1,   0.00,   1,1.0000
    81,    180,'1 ',-0.00000E+0,-2.66700E-2,   0.00000,    0.00,    0.00, 1732.00,  0.00000,  0.00000,  0.00000,  0.00000,1,1,   0.00,   1,1.0000
    82,     87,'1 ', 4.10000E-4, 7.37000E-3,   0.72694,    0.00,    0.00, 3450.00,  0.00000,  0.00000,  0.00000,  0.00000,1,1,   0.00,   1,1.0000
    82,     91,'1 ', 6.60000E-4, 1.26600E-2,   0.95976,    0.00,    0.00, 3020.00,  0.00000,  0.00000,  0.00000,  0.00000,1,1,   0.00,   1,1.0000
    82,     95,'1 ', 6.60000E-4, 1.26600E-2,   0.95976,    0.00,    0.00, 3020.00,  0.00000,  0.00000,  0.00000,  0.00000,1,1,   0.00,   1,1.0000
    83,     89,'1 ', 7.20000E-4, 1.38200E-2,   1.27570,    0.00,    0.00, 3600.00,  0.00000,  0.00000,  0.00000,  0.00000,1,1,   0.00,   1,1.0000
    83,     94,'1 ', 7.80000E-4, 1.50200E-2,   1.13810,    0.00,    0.00, 3020.00,  0.00000,  0.00000,  0.00000,  0.00000,1,2,   0.00,   1,1.0000
    83,     98,'1 ', 7.40000E-4, 1.41300E-2,   1.06630,    0.00,    0.00, 3020.00,  0.00000,  0.00000,  0.00000,  0.00000,1,2,   0.00,   1,1.0000
    83,    168,'1 ',-0.00000E+0,-7.20000E-3,   0.00000,    0.00,    0.00, 1800.00,  0.00000,  0.00000,  0.00000,  0.00000,1,1,   0.00,   1,1.0000
    83,    170,'1 ',-0.00000E+0,-8.64000E-3,   0.00000,    0.00,    0.00, 1800.00,  0.00000,  0.00000,  0.00000,  0.00000,1,1,   0.00,   1,1.0000
    83,    172,'1 ',-0.00000E+0,-1.00000E-2,   0.00000,    0.00,    0.00,    0.00,  0.00000,  0.00000,  0.00000,  0.00000,1,1,   0.00,   1,1.0000
    84,     99,'1 ',-0.00000E+0,-2.66700E-2,   0.00000,    0.00,    0.00, 1732.00,  0.00000,  0.00000,  0.00000,  0.00000,1,2,   0.00,   1,1.0000
    85,    156,'1 ', 6.20000E-3, 6.73000E-2,   1.11560,    0.00,    0.00,    0.00,  0.00000,  0.00000,  0.00000,  0.00000,1,2,   0.00,   1,1.0000
    86,     88,'1 ', 6.00000E-4, 1.03600E-2,   1.01460,    0.00,    0.00, 3450.00,  0.00000,  0.00000,  0.00000,  0.00000,1,2,   0.00,   1,1.0000
    86,     90,'1 ', 1.20000E-4, 2.38000E-3,   0.21926,    0.00,    0.00, 3600.00,  0.00000,  0.00000,  0.00000,  0.00000,1,2,   0.00,   1,1.0000
    86,    180,'1 ', 1.22000E-3, 2.37300E-2,   2.20710,    0.00,    0.00, 3600.00,  0.00000,  0.00000,  0.00000,  0.00000,1,2,   0.00,   1,1.0000
    87,     88,'1 ',-0.00000E+0,-1.26300E-2,   0.00000,    0.00,    0.00, 2000.00,  0.00000,  0.00000,  0.00000,  0.00000,1,1,   0.00,   1,1.0000
    89,     90,'1 ',-0.00000E+0,-8.58000E-3,   0.00000,    0.00,    0.00, 2000.00,  0.00000,  0.00000,  0.00000,  0.00000,1,1,   0.00,   1,1.0000
    91,     92,'1 ',-0.00000E+0,-1.26300E-2,   0.00000,    0.00,    0.00, 2400.00,  0.00000,  0.00000,  0.00000,  0.00000,1,1,   0.00,   1,1.0000
    92,     93,'1 ', 7.40000E-4, 1.42800E-2,   1.08220,    0.00,    0.00, 3020.00,  0.00000,  0.00000,  0.00000,  0.00000,1,1,   0.00,   1,1.0000
    93,     94,'1 ',-0.00000E+0,-1.26300E-2,   0.00000,    0.00,    0.00, 2400.00,  0.00000,  0.00000,  0.00000,  0.00000,1,1,   0.00,   1,1.0000
    95,     96,'1 ',-0.00000E+0,-1.26300E-2,   0.00000,    0.00,    0.00, 2000.00,  0.00000,  0.00000,  0.00000,  0.00000,1,1,   0.00,   1,1.0000
    96,     97,'1 ', 7.40000E-4, 1.42800E-2,   1.08220,    0.00,    0.00, 3020.00,  0.00000,  0.00000,  0.00000,  0.00000,1,1,   0.00,   1,1.0000
    97,     98,'1 ',-0.00000E+0,-1.26300E-2,   0.00000,    0.00,    0.00, 2000.00,  0.00000,  0.00000,  0.00000,  0.00000,1,1,   0.00,   1,1.0000
   100,    101,'1 ', 2.48200E-2, 1.69380E-1,   0.20232,    0.00,    0.00,  838.00,  0.00000,  0.00000,  0.00000,  0.00000,1,2,   0.00,   1,1.0000
   100,    117,'1 ', 1.48000E-2, 1.01010E-1,   0.12066,    0.00,    0.00,  838.00,  0.00000,  0.00000,  0.00000,  0.00000,1,1,   0.00,   1,1.0000
   101,    105,'1 ', 1.38200E-2, 9.26800E-2,   0.11060,    0.00,    0.00,  747.00,  0.00000,  0.00000,  0.00000,  0.00000,1,1,   0.00,   1,1.0000
   101,    106,'1 ', 1.66800E-2, 1.13810E-1,   0.13608,    0.00,    0.00,  838.00,  0.00000,  0.00000,  0.00000,  0.00000,1,1,   0.00,   1,1.0000
   101,    113,'1 ', 1.11300E-2, 6.67800E-2,   0.07286,    0.00,    0.00,  752.00,  0.00000,  0.00000,  0.00000,  0.00000,1,1,   0.00,   1,1.0000
   101,    113,'2 ', 1.05000E-2, 6.54000E-2,   0.06860,    0.00,    0.00,  602.00,  0.00000,  0.00000,  0.00000,  0.00000,1,1,   0.00,   1,1.0000
   101,    113,'3 ', 1.10500E-2, 6.64200E-2,   0.07160,    0.00,    0.00,  752.00,  0.00000,  0.00000,  0.00000,  0.00000,1,1,   0.00,   1,1.0000
   101,    117,'1 ', 3.90300E-2, 2.74030E-1,   0.31072,    0.00,    0.00,  747.00,  0.00000,  0.00000,  0.00000,  0.00000,1,1,   0.00,   1,1.0000
   102,    104,'1 ', 7.90000E-4, 1.93700E-2,   1.32850,    0.00,    0.00,    0.00,  0.00000,  0.00000,  0.00000,  0.00000,1,2,   0.00,   1,1.0000
   102,    108,'1 ', 8.70000E-4, 2.08700E-2,   1.45710,    0.00,    0.00,    0.00,  0.00000,  0.00000,  0.00000,  0.00000,1,1,   0.00,   1,1.0000
   102,    108,'2 ', 8.70000E-4, 2.08700E-2,   1.45710,    0.00,    0.00,    0.00,  0.00000,  0.00000,  0.00000,  0.00000,1,1,   0.00,   1,1.0000
   104,    107,'1 ', 8.30000E-4, 1.98500E-2,   0.00000,    0.00,    0.00, 2450.00,  0.00000,  0.00000,  0.00000,  0.00000,1,2,   0.00,   1,1.0000
   104,    134,'1 ', 9.30000E-4, 3.64400E-2,   1.38950,    0.00,    0.00, 2450.00,  0.00000,  0.00000,  0.00000,  0.00000,1,2,   0.00,   1,1.0000
   104,    135,'1 ', 7.20000E-4, 1.60000E-2,   1.08790,    0.00,    0.00, 2450.00,  0.00000,  0.00000,  0.00000,  0.00000,1,1,   0.00,   1,1.0000
   105,    117,'1 ', 3.05800E-2, 2.04600E-1,   0.24472,    0.00,    0.00,  747.00,  0.00000,  0.00000,  0.00000,  0.00000,1,1,   0.00,   1,1.0000
   106,    117,'1 ', 2.23500E-2, 1.61060E-1,   0.18342,    0.00,    0.00,  838.00,  0.00000,  0.00000,  0.00000,  0.00000,1,1,   0.00,   1,1.0000
   107,    108,'1 ', 1.53000E-3, 1.47000E-2,   0.00000,    0.00,    0.00, 1560.00,  0.00000,  0.00000,  0.00000,  0.00000,1,1,   0.00,   1,1.0000
   107,    110,'1 ', 5.30000E-4, 1.29700E-2,   0.00000,    0.00,    0.00, 2450.00,  0.00000,  0.00000,  0.00000,  0.00000,1,2,   0.00,   1,1.0000
   108,    133,'1 ', 2.00000E-5,-1.33100E-2,   0.00000,    0.00,    0.00, 1800.00,  0.00000,  0.00000,  0.00000,  0.00000,1,2,   0.00,   1,1.0000
   108,    135,'1 ', 2.00000E-5,-9.98000E-3,   0.00000,    0.00,    0.00, 2450.00,  0.00000,  0.00000,  0.00000,  0.00000,1,2,   0.00,   1,1.0000
   108,    174,'1 ',-0.00000E+0,-9.35000E-3,   0.00000,    0.00,    0.00, 2134.00,  0.00000,  0.00000,  0.00000,  0.00000,1,1,   0.00,   1,1.0000
   108,    176,'1 ',-0.00000E+0,-9.44000E-3,   0.00000,    0.00,    0.00, 2134.00,  0.00000,  0.00000,  0.00000,  0.00000,1,1,   0.00,   1,1.0000
   108,    178,'1 ',-0.00000E+0,-9.35000E-3,   0.00000,    0.00,    0.00, 2134.00,  0.00000,  0.00000,  0.00000,  0.00000,1,1,   0.00,   1,1.0000
   111,    120,'1 ',-0.00000E+0,-1.00000E-2,   0.00000,    0.00,    0.00, 2667.00,  0.00000,  0.00000,  0.00000,  0.00000,1,1,   0.00,   1,1.0000
   111,    173,'1 ',-0.00000E+0,-1.00000E-2,   0.00000,    0.00,    0.00,    0.00,  0.00000,  0.00000,  0.00000,  0.00000,1,2,   0.00,   1,1.0000
   114,    124,'1 ', 2.00000E-5,-9.98000E-3,   0.00000,    0.00,    0.00, 1800.00,  0.00000,  0.00000,  0.00000,  0.00000,1,1,   0.00,   1,1.0000
   114,    126,'1 ', 2.00000E-5,-9.98000E-3,   0.00000,    0.00,    0.00, 1800.00,  0.00000,  0.00000,  0.00000,  0.00000,1,1,   0.00,   1,1.0000
   114,    169,'1 ',-0.00000E+0,-7.20000E-3,   0.00000,    0.00,    0.00, 1800.00,  0.00000,  0.00000,  0.00000,  0.00000,1,2,   0.00,   1,1.0000
   114,    171,'1 ',-0.00000E+0,-7.20000E-3,   0.00000,    0.00,    0.00, 1800.00,  0.00000,  0.00000,  0.00000,  0.00000,1,2,   0.00,   1,1.0000
   115,    125,'1 ', 1.00000E-5,-6.66000E-3,   0.00000,    0.00,    0.00, 1800.00,  0.00000,  0.00000,  0.00000,  0.00000,1,2,   0.00,   1,1.0000
   115,    127,'1 ', 1.00000E-5,-6.66000E-3,   0.00000,    0.00,    0.00, 1800.00,  0.00000,  0.00000,  0.00000,  0.00000,1,2,   0.00,   1,1.0000
   115,    128,'1 ', 1.00000E-5,-1.12000E-2,   0.00000,    0.00,    0.00, 2667.00,  0.00000,  0.00000,  0.00000,  0.00000,1,1,   0.00,   1,1.0000
   115,    130,'1 ', 1.00000E-5,-7.20000E-3,   0.00000,    0.00,    0.00, 2667.00,  0.00000,  0.00000,  0.00000,  0.00000,1,1,   0.00,   1,1.0000
   119,    123,'1 ',-0.00000E+0,-1.00000E-2,   0.00000,    0.00,    0.00, 2667.00,  0.00000,  0.00000,  0.00000,  0.00000,1,2,   0.00,   1,1.0000
   119,    129,'1 ', 1.00000E-5,-1.12000E-2,   0.00000,    0.00,    0.00, 2667.00,  0.00000,  0.00000,  0.00000,  0.00000,1,2,   0.00,   1,1.0000
   119,    131,'1 ', 1.00000E-5,-3.60000E-3,   0.00000,    0.00,    0.00, 2667.00,  0.00000,  0.00000,  0.00000,  0.00000,1,2,   0.00,   1,1.0000
   119,    132,'1 ', 1.00000E-5,-7.55000E-3,   0.00000,    0.00,    0.00,    0.00,  0.00000,  0.00000,  0.00000,  0.00000,1,1,   0.00,   1,1.0000
   119,    134,'1 ', 1.00000E-5,-1.09800E-2,   0.00000,    0.00,    0.00, 2450.00,  0.00000,  0.00000,  0.00000,  0.00000,1,1,   0.00,   1,1.0000
   120,    121,'1 ', 7.60000E-4, 1.95200E-2,   1.82450,    0.00,    0.00, 2894.00,  0.00000,  0.00000,  0.00000,  0.00000,1,1,   0.00,   1,1.0000
   121,    122,'1 ',-0.00000E+0,-1.00000E-2,   0.00000,    0.00,    0.00, 2667.00,  0.00000,  0.00000,  0.00000,  0.00000,1,1,   0.00,   1,1.0000
   122,    123,'1 ', 8.20000E-4, 2.11900E-2,   1.98420,    0.00,    0.00, 2894.00,  0.00000,  0.00000,  0.00000,  0.00000,1,1,   0.00,   1,1.0000
   124,    125,'1 ', 1.40000E-3, 2.33800E-2,   1.47500,    0.00,    0.00, 2396.00,  0.00000,  0.00000,  0.00000,  0.00000,1,1,   0.00,   1,1.0000
   126,    127,'1 ', 1.40000E-3, 2.33800E-2,   1.47500,    0.00,    0.00, 2396.00,  0.00000,  0.00000,  0.00000,  0.00000,1,1,   0.00,   1,1.0000
   128,    129,'1 ', 1.54000E-3, 3.40900E-2,   2.31140,    0.00,    0.00, 2450.00,  0.00000,  0.00000,  0.00000,  0.00000,1,1,   0.00,   1,1.0000
   130,    131,'1 ', 9.50000E-4, 2.10200E-2,   1.42520,    0.00,    0.00, 2450.00,  0.00000,  0.00000,  0.00000,  0.00000,1,1,   0.00,   1,1.0000
   132,    133,'1 ', 1.65000E-3, 5.71900E-2,   2.47740,    0.00,    0.00, 2450.00,  0.00000,  0.00000,  0.00000,  0.00000,1,1,   0.00,   1,1.0000
   136,    152,'1 ', 4.20000E-4, 9.05000E-3,   0.66794,    0.00,    0.00, 3600.00,  0.00000,  0.00000,  0.00000,  0.00000,1,1,   0.00,   1,1.0000
   137,    143,'1 ', 1.90000E-3, 2.58000E-2,   0.09840,    0.00,    0.00, 2320.00,  0.00000,  0.00000,  0.00000,  0.00000,1,1,   0.00,   1,1.0000
   137,    150,'1 ', 8.45000E-3, 7.03400E-2,   0.15954,    0.00,    0.00, 1160.00,  0.00000,  0.00000,  0.00000,  0.00000,1,1,   0.00,   1,1.0000
   139,    142,'1 ', 1.93000E-3, 2.77900E-2,   4.67120,    0.00,    0.00, 3600.00,  0.00000,  0.00000,  0.00000,  0.00000,1,1,   0.00,   1,1.0000
   139,    147,'1 ', 5.60000E-4, 1.41500E-2,   1.04290,    0.00,    0.00, 3600.00,  0.00000,  0.00000,  0.00000,  0.00000,1,2,   0.00,   1,1.0000
   141,    143,'1 ', 1.10000E-3, 1.27000E-2,   0.04800,    0.00,    0.00, 2320.00,  0.00000,  0.00000,  0.00000,  0.00000,1,1,   0.00,   1,1.0000
   142,    145,'1 ', 2.80000E-4, 7.53000E-3,   0.51736,    0.00,    0.00, 3600.00,  0.00000,  0.00000,  0.00000,  0.00000,1,1,   0.00,   1,1.0000
   142,    145,'2 ', 3.50000E-4, 7.50000E-3,   0.55360,    0.00,    0.00, 3600.00,  0.00000,  0.00000,  0.00000,  0.00000,1,1,   0.00,   1,1.0000
   142,    147,'1 ', 1.90000E-3, 3.10000E-2,   4.14020,    0.00,    0.00, 3600.00,  0.00000,  0.00000,  0.00000,  0.00000,1,1,   0.00,   1,1.0000
   142,    151,'1 ', 6.00000E-4, 1.28000E-2,   0.94620,    0.00,    0.00, 3600.00,  0.00000,  0.00000,  0.00000,  0.00000,1,1,   0.00,   1,1.0000
   142,    153,'1 ', 4.40000E-4, 1.12500E-2,   0.82920,    0.00,    0.00, 3600.00,  0.00000,  0.00000,  0.00000,  0.00000,1,1,   0.00,   1,1.0000
   142,    153,'2 ', 4.40000E-4, 1.12500E-2,   0.82920,    0.00,    0.00, 3600.00,  0.00000,  0.00000,  0.00000,  0.00000,1,1,   0.00,   1,1.0000
   143,    146,'1 ', 1.38000E-3, 5.39900E-2,   0.15252,    0.00,    0.00, 2320.00,  0.00000,  0.00000,  0.00000,  0.00000,1,2,   0.00,   1,1.0000
   143,    154,'1 ', 3.20000E-3, 3.95000E-2,   0.14400,    0.00,    0.00, 2320.00,  0.00000,  0.00000,  0.00000,  0.00000,1,2,   0.00,   1,1.0000
   145,    151,'1 ', 2.10000E-4, 4.57000E-3,   0.32336,    0.00,    0.00, 3600.00,  0.00000,  0.00000,  0.00000,  0.00000,1,1,   0.00,   1,1.0000
   150,    154,'1 ', 2.85000E-3, 3.64900E-2,   0.12656,    0.00,    0.00, 2320.00,  0.00000,  0.00000,  0.00000,  0.00000,1,1,   0.00,   1,1.0000
   150,    154,'2 ', 1.38000E-3, 3.39900E-2,   0.11252,    0.00,    0.00, 2320.00,  0.00000,  0.00000,  0.00000,  0.00000,1,1,   0.00,   1,1.0000
   151,    152,'1 ', 4.00000E-4, 9.30000E-3,   0.68560,    0.00,    0.00, 3600.00,  0.00000,  0.00000,  0.00000,  0.00000,1,1,   0.00,   1,1.0000
   153,    175,'1 ',-0.00000E+0,-9.35000E-3,   0.00000,    0.00,    0.00, 2134.00,  0.00000,  0.00000,  0.00000,  0.00000,1,2,   0.00,   1,1.0000
   153,    177,'1 ',-0.00000E+0,-9.35000E-3,   0.00000,    0.00,    0.00, 2134.00,  0.00000,  0.00000,  0.00000,  0.00000,1,2,   0.00,   1,1.0000
   153,    179,'1 ',-0.00000E+0,-8.40000E-3,   0.00000,    0.00,    0.00, 2100.00,  0.00000,  0.00000,  0.00000,  0.00000,1,2,   0.00,   1,1.0000
   155,    156,'1 ', 2.40000E-3, 3.32000E-2,   0.58490,    0.00,    0.00,    0.00,  0.00000,  0.00000,  0.00000,  0.00000,1,2,   0.00,   1,1.0000
   155,    158,'1 ', 5.20000E-3, 6.02000E-2,   1.01000,    0.00,    0.00,    0.00,  0.00000,  0.00000,  0.00000,  0.00000,1,1,   0.00,   1,1.0000
   155,    158,'2 ', 4.90000E-3, 5.37000E-2,   0.88430,    0.00,    0.00,    0.00,  0.00000,  0.00000,  0.00000,  0.00000,1,1,   0.00,   1,1.0000
   155,    160,'1 ', 1.70000E-3, 2.25000E-2,   0.39920,    0.00,    0.00,    0.00,  0.00000,  0.00000,  0.00000,  0.00000,1,1,   0.00,   1,1.0000
   155,    160,'2 ', 2.10000E-3, 2.38000E-2,   0.38450,    0.00,    0.00,    0.00,  0.00000,  0.00000,  0.00000,  0.00000,1,1,   0.00,   1,1.0000
   155,    165,'1 ', 1.20000E-3, 1.72000E-2,   0.29870,    0.00,    0.00,    0.00,  0.00000,  0.00000,  0.00000,  0.00000,1,1,   0.00,   1,1.0000
   155,    167,'1 ', 8.00000E-4, 1.06000E-2,   0.20390,    0.00,    0.00,    0.00,  0.00000,  0.00000,  0.00000,  0.00000,1,1,   0.00,   1,1.0000
   156,    167,'1 ', 1.60000E-3, 2.26000E-2,   0.38100,    0.00,    0.00,    0.00,  0.00000,  0.00000,  0.00000,  0.00000,1,1,   0.00,   1,1.0000
   157,    161,'1 ', 1.08000E-2, 9.65000E-2,   0.32960,    0.00,    0.00,    0.00,  0.00000,  0.00000,  0.00000,  0.00000,1,1,   0.00,   1,1.0000
   158,    164,'1 ', 9.60000E-3, 8.78000E-2,   1.42650,    0.00,    0.00,    0.00,  0.00000,  0.00000,  0.00000,  0.00000,1,1,   0.00,   1,1.0000
   158,    165,'1 ', 3.40000E-3, 3.92000E-2,   0.65240,    0.00,    0.00,    0.00,  0.00000,  0.00000,  0.00000,  0.00000,1,1,   0.00,   1,1.0000
   158,    166,'1 ', 3.40000E-3, 3.74000E-2,   0.62080,    0.00,    0.00,    0.00,  0.00000,  0.00000,  0.00000,  0.00000,1,1,   0.00,   1,1.0000
   158,    166,'2 ', 3.40000E-3, 3.72000E-2,   0.61820,    0.00,    0.00,    0.00,  0.00000,  0.00000,  0.00000,  0.00000,1,1,   0.00,   1,1.0000
   160,    166,'1 ', 3.80000E-3, 3.40000E-2,   0.58240,    0.00,    0.00,    0.00,  0.00000,  0.00000,  0.00000,  0.00000,1,1,   0.00,   1,1.0000
   160,    166,'2 ', 3.20000E-3, 3.49000E-2,   0.57220,    0.00,    0.00,    0.00,  0.00000,  0.00000,  0.00000,  0.00000,1,1,   0.00,   1,1.0000
   168,    169,'1 ', 1.03000E-3, 2.33800E-2,   1.58040,    0.00,    0.00, 3020.00,  0.00000,  0.00000,  0.00000,  0.00000,1,1,   0.00,   1,1.0000
   170,    171,'1 ', 1.07000E-3, 2.47000E-2,   1.52700,    0.00,    0.00, 3020.00,  0.00000,  0.00000,  0.00000,  0.00000,1,1,   0.00,   1,1.0000
   172,    173,'1 ', 1.03000E-3, 3.23000E-2,   2.79600,    0.00,    0.00,    0.00,  0.00000,  0.00000,  0.00000,  0.00000,1,1,   0.00,   1,1.0000
...
 0 /End of Branch data, Begin Transformer data
     2,     3,     0,'1 ',1,1,1, 0.00000E+0, 0.00000E+0,2,'                                        ',1,   1,1.0000
-0.00000E+0, 1.46000E-2,   100.00
1.00000,   0.000,   0.000,     0.00,     0.00,     0.00, 0,      0, 1.10000, 0.90000, 1.10000, 0.90000,  33, 0, 0.00000, 0.00000,  0.000
1.00000,   0.000
     2,     4,     0,'1 ',1,1,1, 0.00000E+0, 0.00000E+0,2,'                                        ',1,   1,1.0000
-0.00000E+0, 1.73000E-2,   100.00
0.95450,   0.000,   0.000,     0.00,     0.00,     0.00, 0,      0, 1.10000, 0.90000, 1.10000, 0.90000,  33, 0, 0.00000, 0.00000,  0.000
1.00000,   0.000
     5,     6,     0,'1 ',1,1,1, 0.00000E+0, 0.00000E+0,2,'                                        ',1,   1,1.0000
-0.00000E+0, 1.23800E-2,   100.00
1.00000,   0.000,   0.000,     0.00,     0.00,     0.00, 0,      0, 1.10000, 0.90000, 1.10000, 0.90000,  33, 0, 0.00000, 0.00000,  0.000
1.00000,   0.000
     5,    11,     0,'1 ',1,1,1, 0.00000E+0, 0.00000E+0,2,'                                        ',1,   1,1.0000
-0.00000E+0, 1.50000E-2,   100.00
1.00000,   0.000,   0.000,     0.00,     0.00,     0.00, 0,      0, 1.10000, 0.90000, 1.10000, 0.90000,  33, 0, 0.00000, 0.00000,  0.000
1.00000,   0.000
     7,     8,     0,'1 ',1,1,1, 0.00000E+0, 0.00000E+0,2,'                                        ',1,   1,1.0000
-0.00000E+0, 1.10000E-2,   100.00
1.06300,   0.000,   0.000,     0.00,     0.00,     0.00, 0,      0, 1.10000, 0.90000, 1.10000, 0.90000,  33, 0, 0.00000, 0.00000,  0.000
1.00000,   0.000
     7,     8,     0,'2 ',1,1,1, 0.00000E+0, 0.00000E+0,2,'                                        ',1,   1,1.0000
-0.00000E+0, 1.10000E-2,   100.00
...